<?xml version="1.0" encoding="UTF-8"?>
<!DOCTYPE facilities SYSTEM "http://www.matsim.org/files/dtd/facilities_v1.dtd">
<facilities name="facilities">

<!-- ====================================================================== -->

	<facility id="home" x="9.189524" y="49.1318519">
		<activity type="home"/>
	</facility>
	
	<facility id="work" x="9.4170422" y="49.317947">
		<activity type="work"/>
	</facility>
	
</facilities>
