<?xml version="1.0" encoding="utf-8"?>
<!DOCTYPE population SYSTEM "http://www.matsim.org/files/dtd/population_v6.dtd">

<population>



<!-- ====================================================================== -->

	<person id="1">
		<plan selected="yes">
			<activity type="home" x="89188.28426354303" y="5483910.029622449" end_time="06:00:00" >
			</activity>
			<leg mode="car">
			</leg>
			<activity type="work" x="67733.3641933829" y="5455762.9470862355" end_time="16:00:00" >
			</activity>
			<leg mode="car">
			</leg>
			<activity type="home" x="89188.28426354303" y="5483910.029622449" >
			</activity>
		</plan>

	</person>

<!-- ====================================================================== -->

</population>
